<?xml version="1.0" encoding="UTF-8"?>

<!-- generated on 2022-10-27 10:51:25 by Eclipse SUMO netedit Version 1.14.1
-->

<routes xmlns:xsi="http://www.w3.org/2001/XMLSchema-instance" xsi:noNamespaceSchemaLocation="http://sumo.dlr.de/xsd/routes_file.xsd">
    <!-- Vehicles, persons and containers (sorted by depart) -->
    <flow id="ForsythRight7am" begin="0.0" departLane="random" departSpeed="avg" arrivalLane="current" from="426843745#0" to="798289594#3" end="900.0" number="47"/>
<flow id="ForsythThru7am" begin="0.0" departLane="random" departSpeed="avg" arrivalLane="current" from="426843745#0" to="-8644213#9" end="900.0" number="63"/>
<flow id="ForsythLeft7am" begin="0.0" departLane="random" departSpeed="avg" arrivalLane="current" from="426843745#0" to="102519704#0" end="900.0" number="4"/>
<flow id="HuntFromEThru7am" begin="0.0" departLane="random" departSpeed="avg" arrivalLane="current" from="798289594#0" to="798289594#3" end="900.0" number="121"/>
<flow id="HuntFromELeft7am" begin="0.0" departLane="random" departSpeed="avg" arrivalLane="current" from="798289594#0" to="-8644213#9" end="900.0" number="16"/>
<flow id="ParkerRight7am" begin="0.0" departLane="random" departSpeed="avg" arrivalLane="current" from="8644213#8" to="102519704#0" end="900.0" number="20"/>
<flow id="ParkerThru7am" begin="0.0" departLane="random" departSpeed="avg" arrivalLane="current" from="8644213#8" to="426843743" end="900.0" number="112"/>
<flow id="HuntFromWRight7am" begin="0.0" departLane="random" departSpeed="avg" arrivalLane="current" from="426493699#0" to="-8644213#9" end="900.0" number="1"/>
<flow id="HuntFromWThru7am" begin="0.0" departLane="random" departSpeed="avg" arrivalLane="current" from="426493699#0" to="102519704#0" end="900.0" number="94"/>
<flow id="ForsythRight715am" begin="900.0" departLane="random" departSpeed="avg" arrivalLane="current" from="426843745#0" to="798289594#3" end="1800.0" number="49"/>
<flow id="ForsythThru715am" begin="900.0" departLane="random" departSpeed="avg" arrivalLane="current" from="426843745#0" to="-8644213#9" end="1800.0" number="45"/>
<flow id="ForsythLeft715am" begin="900.0" departLane="random" departSpeed="avg" arrivalLane="current" from="426843745#0" to="102519704#0" end="1800.0" number="5"/>
<flow id="HuntFromERight715am" begin="900.0" departLane="random" departSpeed="avg" arrivalLane="current" from="798289594#0" to="426843743" end="1800.0" number="8"/>
<flow id="HuntFromEThru715am" begin="900.0" departLane="random" departSpeed="avg" arrivalLane="current" from="798289594#0" to="798289594#3" end="1800.0" number="108"/>
<flow id="HuntFromELeft715am" begin="900.0" departLane="random" departSpeed="avg" arrivalLane="current" from="798289594#0" to="-8644213#9" end="1800.0" number="27"/>
<flow id="ParkerRight715am" begin="900.0" departLane="random" departSpeed="avg" arrivalLane="current" from="8644213#8" to="102519704#0" end="1800.0" number="16"/>
<flow id="ParkerThru715am" begin="900.0" departLane="random" departSpeed="avg" arrivalLane="current" from="8644213#8" to="426843743" end="1800.0" number="109"/>
<flow id="ParkerLeft715am" begin="900.0" departLane="random" departSpeed="avg" arrivalLane="current" from="8644213#8" to="798289594#3" end="1800.0" number="1"/>
<flow id="HuntFromWRight715am" begin="900.0" departLane="random" departSpeed="avg" arrivalLane="current" from="426493699#0" to="-8644213#9" end="1800.0" number="1"/>
<flow id="HuntFromWThru715am" begin="900.0" departLane="random" departSpeed="avg" arrivalLane="current" from="426493699#0" to="102519704#0" end="1800.0" number="102"/>
<flow id="HuntFromWLeft715am" begin="900.0" departLane="random" departSpeed="avg" arrivalLane="current" from="426493699#0" to="426843743" end="1800.0" number="1"/>
<flow id="ForsythRight730am" begin="1800.0" departLane="random" departSpeed="avg" arrivalLane="current" from="426843745#0" to="798289594#3" end="2700.0" number="18"/>
<flow id="ForsythThru730am" begin="1800.0" departLane="random" departSpeed="avg" arrivalLane="current" from="426843745#0" to="-8644213#9" end="2700.0" number="55"/>
<flow id="ForsythLeft730am" begin="1800.0" departLane="random" departSpeed="avg" arrivalLane="current" from="426843745#0" to="102519704#0" end="2700.0" number="9"/>
<flow id="HuntFromERight730am" begin="1800.0" departLane="random" departSpeed="avg" arrivalLane="current" from="798289594#0" to="426843743" end="2700.0" number="1"/>
<flow id="HuntFromEThru730am" begin="1800.0" departLane="random" departSpeed="avg" arrivalLane="current" from="798289594#0" to="798289594#3" end="2700.0" number="105"/>
<flow id="HuntFromELeft730am" begin="1800.0" departLane="random" departSpeed="avg" arrivalLane="current" from="798289594#0" to="-8644213#9" end="2700.0" number="34"/>
<flow id="ParkerRight730am" begin="1800.0" departLane="random" departSpeed="avg" arrivalLane="current" from="8644213#8" to="102519704#0" end="2700.0" number="24"/>
<flow id="ParkerThru730am" begin="1800.0" departLane="random" departSpeed="avg" arrivalLane="current" from="8644213#8" to="426843743" end="2700.0" number="99"/>
<flow id="ParkerLeft730am" begin="1800.0" departLane="random" departSpeed="avg" arrivalLane="current" from="8644213#8" to="798289594#3" end="2700.0" number="1"/>
<flow id="HuntFromWRight730am" begin="1800.0" departLane="random" departSpeed="avg" arrivalLane="current" from="426493699#0" to="-8644213#9" end="2700.0" number="1"/>
<flow id="HuntFromWThru730am" begin="1800.0" departLane="random" departSpeed="avg" arrivalLane="current" from="426493699#0" to="102519704#0" end="2700.0" number="134"/>
<flow id="HuntFromWLeft730am" begin="1800.0" departLane="random" departSpeed="avg" arrivalLane="current" from="426493699#0" to="426843743" end="2700.0" number="4"/>
<flow id="ForsythRight745am" begin="2700.0" departLane="random" departSpeed="avg" arrivalLane="current" from="426843745#0" to="798289594#3" end="3600.0" number="25"/>
<flow id="ForsythThru745am" begin="2700.0" departLane="random" departSpeed="avg" arrivalLane="current" from="426843745#0" to="-8644213#9" end="3600.0" number="52"/>
<flow id="ForsythLeft745am" begin="2700.0" departLane="random" departSpeed="avg" arrivalLane="current" from="426843745#0" to="102519704#0" end="3600.0" number="1"/>
<flow id="HuntFromERight745am" begin="2700.0" departLane="random" departSpeed="avg" arrivalLane="current" from="798289594#0" to="426843743" end="3600.0" number="3"/>
<flow id="HuntFromEThru745am" begin="2700.0" departLane="random" departSpeed="avg" arrivalLane="current" from="798289594#0" to="798289594#3" end="3600.0" number="104"/>
<flow id="HuntFromELeft745am" begin="2700.0" departLane="random" departSpeed="avg" arrivalLane="current" from="798289594#0" to="-8644213#9" end="3600.0" number="48"/>
<flow id="HuntFromEUTurn745am" begin="2700.0" departLane="random" departSpeed="avg" arrivalLane="current" from="798289594#0" to="102519704#0" end="3600.0" number="1"/>
<flow id="ParkerRight745am" begin="2700.0" departLane="random" departSpeed="avg" arrivalLane="current" from="8644213#8" to="102519704#0" end="3600.0" number="30"/>
<flow id="ParkerThru745am" begin="2700.0" departLane="random" departSpeed="avg" arrivalLane="current" from="8644213#8" to="426843743" end="3600.0" number="97"/>
<flow id="ParkerLeft745am" begin="2700.0" departLane="random" departSpeed="avg" arrivalLane="current" from="8644213#8" to="798289594#3" end="3600.0" number="1"/>
<flow id="HuntFromWRight745am" begin="2700.0" departLane="random" departSpeed="avg" arrivalLane="current" from="426493699#0" to="-8644213#9" end="3600.0" number="2"/>
<flow id="HuntFromWThru745am" begin="2700.0" departLane="random" departSpeed="avg" arrivalLane="current" from="426493699#0" to="102519704#0" end="3600.0" number="142"/>
<flow id="HuntFromWLeft745am" begin="2700.0" departLane="random" departSpeed="avg" arrivalLane="current" from="426493699#0" to="426843743" end="3600.0" number="2"/>
<flow id="ForsythRight8am" begin="3600.0" departLane="random" departSpeed="avg" arrivalLane="current" from="426843745#0" to="798289594#3" end="4500.0" number="53"/>
<flow id="ForsythThru8am" begin="3600.0" departLane="random" departSpeed="avg" arrivalLane="current" from="426843745#0" to="-8644213#9" end="4500.0" number="61"/>
<flow id="ForsythLeft8am" begin="3600.0" departLane="random" departSpeed="avg" arrivalLane="current" from="426843745#0" to="102519704#0" end="4500.0" number="4"/>
<flow id="HuntFromERight8am" begin="3600.0" departLane="random" departSpeed="avg" arrivalLane="current" from="798289594#0" to="426843743" end="4500.0" number="5"/>
<flow id="HuntFromEThru8am" begin="3600.0" departLane="random" departSpeed="avg" arrivalLane="current" from="798289594#0" to="798289594#3" end="4500.0" number="83"/>
<flow id="HuntFromELeft8am" begin="3600.0" departLane="random" departSpeed="avg" arrivalLane="current" from="798289594#0" to="-8644213#9" end="4500.0" number="23"/>
<flow id="ParkerRight8am" begin="3600.0" departLane="random" departSpeed="avg" arrivalLane="current" from="8644213#8" to="102519704#0" end="4500.0" number="27"/>
<flow id="ParkerThru8am" begin="3600.0" departLane="random" departSpeed="avg" arrivalLane="current" from="8644213#8" to="426843743" end="4500.0" number="114"/>
<flow id="HuntFromWRight8am" begin="3600.0" departLane="random" departSpeed="avg" arrivalLane="current" from="426493699#0" to="-8644213#9" end="4500.0" number="3"/>
<flow id="HuntFromWThru8am" begin="3600.0" departLane="random" departSpeed="avg" arrivalLane="current" from="426493699#0" to="102519704#0" end="4500.0" number="132"/>
<flow id="HuntFromWLeft8am" begin="3600.0" departLane="random" departSpeed="avg" arrivalLane="current" from="426493699#0" to="426843743" end="4500.0" number="1"/>
<flow id="ForsythRight815am" begin="4500.0" departLane="random" departSpeed="avg" arrivalLane="current" from="426843745#0" to="798289594#3" end="5400.0" number="43"/>
<flow id="ForsythThru815am" begin="4500.0" departLane="random" departSpeed="avg" arrivalLane="current" from="426843745#0" to="-8644213#9" end="5400.0" number="49"/>
<flow id="ForsythLeft815am" begin="4500.0" departLane="random" departSpeed="avg" arrivalLane="current" from="426843745#0" to="102519704#0" end="5400.0" number="4"/>
<flow id="HuntFromERight815am" begin="4500.0" departLane="random" departSpeed="avg" arrivalLane="current" from="798289594#0" to="426843743" end="5400.0" number="5"/>
<flow id="HuntFromEThru815am" begin="4500.0" departLane="random" departSpeed="avg" arrivalLane="current" from="798289594#0" to="798289594#3" end="5400.0" number="90"/>
<flow id="HuntFromELeft815am" begin="4500.0" departLane="random" departSpeed="avg" arrivalLane="current" from="798289594#0" to="-8644213#9" end="5400.0" number="24"/>
<flow id="ParkerRight815am" begin="4500.0" departLane="random" departSpeed="avg" arrivalLane="current" from="8644213#8" to="102519704#0" end="5400.0" number="20"/>
<flow id="ParkerThru815am" begin="4500.0" departLane="random" departSpeed="avg" arrivalLane="current" from="8644213#8" to="426843743" end="5400.0" number="116"/>
<flow id="HuntFromWRight815am" begin="4500.0" departLane="random" departSpeed="avg" arrivalLane="current" from="426493699#0" to="-8644213#9" end="5400.0" number="1"/>
<flow id="HuntFromWThru815am" begin="4500.0" departLane="random" departSpeed="avg" arrivalLane="current" from="426493699#0" to="102519704#0" end="5400.0" number="112"/>
<flow id="ForsythRight830am" begin="5400.0" departLane="random" departSpeed="avg" arrivalLane="current" from="426843745#0" to="798289594#3" end="6300.0" number="36"/>
<flow id="ForsythThru830am" begin="5400.0" departLane="random" departSpeed="avg" arrivalLane="current" from="426843745#0" to="-8644213#9" end="6300.0" number="50"/>
<flow id="ForsythLeft830am" begin="5400.0" departLane="random" departSpeed="avg" arrivalLane="current" from="426843745#0" to="102519704#0" end="6300.0" number="2"/>
<flow id="HuntFromERight830am" begin="5400.0" departLane="random" departSpeed="avg" arrivalLane="current" from="798289594#0" to="426843743" end="6300.0" number="5"/>
<flow id="HuntFromEThru830am" begin="5400.0" departLane="random" departSpeed="avg" arrivalLane="current" from="798289594#0" to="798289594#3" end="6300.0" number="90"/>
<flow id="HuntFromELeft830am" begin="5400.0" departLane="random" departSpeed="avg" arrivalLane="current" from="798289594#0" to="-8644213#9" end="6300.0" number="36"/>
<flow id="ParkerRight830am" begin="5400.0" departLane="random" departSpeed="avg" arrivalLane="current" from="8644213#8" to="102519704#0" end="6300.0" number="10"/>
<flow id="ParkerThru830am" begin="5400.0" departLane="random" departSpeed="avg" arrivalLane="current" from="8644213#8" to="426843743" end="6300.0" number="107"/>
<flow id="HuntFromWRight830am" begin="5400.0" departLane="random" departSpeed="avg" arrivalLane="current" from="426493699#0" to="-8644213#9" end="6300.0" number="1"/>
<flow id="HuntFromWThru830am" begin="5400.0" departLane="random" departSpeed="avg" arrivalLane="current" from="426493699#0" to="102519704#0" end="6300.0" number="135"/>
<flow id="ForsythRight845am" begin="6300.0" departLane="random" departSpeed="avg" arrivalLane="current" from="426843745#0" to="798289594#3" end="7200.0" number="39"/>
<flow id="ForsythThru845am" begin="6300.0" departLane="random" departSpeed="avg" arrivalLane="current" from="426843745#0" to="-8644213#9" end="7200.0" number="38"/>
<flow id="HuntFromERight845am" begin="6300.0" departLane="random" departSpeed="avg" arrivalLane="current" from="798289594#0" to="426843743" end="7200.0" number="4"/>
<flow id="HuntFromEThru845am" begin="6300.0" departLane="random" departSpeed="avg" arrivalLane="current" from="798289594#0" to="798289594#3" end="7200.0" number="122"/>
<flow id="HuntFromELeft845am" begin="6300.0" departLane="random" departSpeed="avg" arrivalLane="current" from="798289594#0" to="-8644213#9" end="7200.0" number="29"/>
<flow id="HuntFromEUTurn845am" begin="6300.0" departLane="random" departSpeed="avg" arrivalLane="current" from="798289594#0" to="102519704#0" end="7200.0" number="5"/>
<flow id="ParkerRight845am" begin="6300.0" departLane="random" departSpeed="avg" arrivalLane="current" from="8644213#8" to="102519704#0" end="7200.0" number="26"/>
<flow id="ParkerThru845am" begin="6300.0" departLane="random" departSpeed="avg" arrivalLane="current" from="8644213#8" to="426843743" end="7200.0" number="83"/>
<flow id="HuntFromWRight845am" begin="6300.0" departLane="random" departSpeed="avg" arrivalLane="current" from="426493699#0" to="-8644213#9" end="7200.0" number="4"/>
<flow id="HuntFromWThru845am" begin="6300.0" departLane="random" departSpeed="avg" arrivalLane="current" from="426493699#0" to="102519704#0" end="7200.0" number="134"/>
<flow id="ForsythRight9am" begin="7200.0" departLane="random" departSpeed="avg" arrivalLane="current" from="426843745#0" to="798289594#3" end="8100.0" number="31"/>
<flow id="ForsythThru9am" begin="7200.0" departLane="random" departSpeed="avg" arrivalLane="current" from="426843745#0" to="-8644213#9" end="8100.0" number="49"/>
<flow id="ForsythLeft9am" begin="7200.0" departLane="random" departSpeed="avg" arrivalLane="current" from="426843745#0" to="102519704#0" end="8100.0" number="6"/>
<flow id="HuntFromERight9am" begin="7200.0" departLane="random" departSpeed="avg" arrivalLane="current" from="798289594#0" to="426843743" end="8100.0" number="1"/>
<flow id="HuntFromEThru9am" begin="7200.0" departLane="random" departSpeed="avg" arrivalLane="current" from="798289594#0" to="798289594#3" end="8100.0" number="110"/>
<flow id="HuntFromELeft9am" begin="7200.0" departLane="random" departSpeed="avg" arrivalLane="current" from="798289594#0" to="-8644213#9" end="8100.0" number="31"/>
<flow id="HuntFromEUTurn9am" begin="7200.0" departLane="random" departSpeed="avg" arrivalLane="current" from="798289594#0" to="102519704#0" end="8100.0" number="1"/>
<flow id="ParkerRight9am" begin="7200.0" departLane="random" departSpeed="avg" arrivalLane="current" from="8644213#8" to="102519704#0" end="8100.0" number="14"/>
<flow id="ParkerThru9am" begin="7200.0" departLane="random" departSpeed="avg" arrivalLane="current" from="8644213#8" to="426843743" end="8100.0" number="106"/>
<flow id="ParkerLeft9am" begin="7200.0" departLane="random" departSpeed="avg" arrivalLane="current" from="8644213#8" to="798289594#3" end="8100.0" number="2"/>
<flow id="HuntFromWThru9am" begin="7200.0" departLane="random" departSpeed="avg" arrivalLane="current" from="426493699#0" to="102519704#0" end="8100.0" number="154"/>
<flow id="HuntFromWLeft9am" begin="7200.0" departLane="random" departSpeed="avg" arrivalLane="current" from="426493699#0" to="426843743" end="8100.0" number="1"/>
<flow id="ForsythRight915am" begin="8100.0" departLane="random" departSpeed="avg" arrivalLane="current" from="426843745#0" to="798289594#3" end="9000.0" number="35"/>
<flow id="ForsythThru915am" begin="8100.0" departLane="random" departSpeed="avg" arrivalLane="current" from="426843745#0" to="-8644213#9" end="9000.0" number="53"/>
<flow id="ForsythLeft915am" begin="8100.0" departLane="random" departSpeed="avg" arrivalLane="current" from="426843745#0" to="102519704#0" end="9000.0" number="4"/>
<flow id="HuntFromERight915am" begin="8100.0" departLane="random" departSpeed="avg" arrivalLane="current" from="798289594#0" to="426843743" end="9000.0" number="5"/>
<flow id="HuntFromEThru915am" begin="8100.0" departLane="random" departSpeed="avg" arrivalLane="current" from="798289594#0" to="798289594#3" end="9000.0" number="128"/>
<flow id="HuntFromELeft915am" begin="8100.0" departLane="random" departSpeed="avg" arrivalLane="current" from="798289594#0" to="-8644213#9" end="9000.0" number="34"/>
<flow id="ParkerRight915am" begin="8100.0" departLane="random" departSpeed="avg" arrivalLane="current" from="8644213#8" to="102519704#0" end="9000.0" number="23"/>
<flow id="ParkerThru915am" begin="8100.0" departLane="random" departSpeed="avg" arrivalLane="current" from="8644213#8" to="426843743" end="9000.0" number="64"/>
<flow id="ParkerLeft915am" begin="8100.0" departLane="random" departSpeed="avg" arrivalLane="current" from="8644213#8" to="798289594#3" end="9000.0" number="5"/>
<flow id="HuntFromWRight915am" begin="8100.0" departLane="random" departSpeed="avg" arrivalLane="current" from="426493699#0" to="-8644213#9" end="9000.0" number="2"/>
<flow id="HuntFromWThru915am" begin="8100.0" departLane="random" departSpeed="avg" arrivalLane="current" from="426493699#0" to="102519704#0" end="9000.0" number="134"/>
<flow id="ForsythRight930am" begin="9000.0" departLane="random" departSpeed="avg" arrivalLane="current" from="426843745#0" to="798289594#3" end="9900.0" number="60"/>
<flow id="ForsythThru930am" begin="9000.0" departLane="random" departSpeed="avg" arrivalLane="current" from="426843745#0" to="-8644213#9" end="9900.0" number="57"/>
<flow id="ForsythLeft930am" begin="9000.0" departLane="random" departSpeed="avg" arrivalLane="current" from="426843745#0" to="102519704#0" end="9900.0" number="2"/>
<flow id="HuntFromEThru930am" begin="9000.0" departLane="random" departSpeed="avg" arrivalLane="current" from="798289594#0" to="798289594#3" end="9900.0" number="105"/>
<flow id="HuntFromELeft930am" begin="9000.0" departLane="random" departSpeed="avg" arrivalLane="current" from="798289594#0" to="-8644213#9" end="9900.0" number="36"/>
<flow id="HuntFromEUTurn930am" begin="9000.0" departLane="random" departSpeed="avg" arrivalLane="current" from="798289594#0" to="102519704#0" end="9900.0" number="3"/>
<flow id="ParkerRight930am" begin="9000.0" departLane="random" departSpeed="avg" arrivalLane="current" from="8644213#8" to="102519704#0" end="9900.0" number="21"/>
<flow id="ParkerThru930am" begin="9000.0" departLane="random" departSpeed="avg" arrivalLane="current" from="8644213#8" to="426843743" end="9900.0" number="77"/>
<flow id="ParkerLeft930am" begin="9000.0" departLane="random" departSpeed="avg" arrivalLane="current" from="8644213#8" to="798289594#3" end="9900.0" number="3"/>
<flow id="HuntFromWRight930am" begin="9000.0" departLane="random" departSpeed="avg" arrivalLane="current" from="426493699#0" to="-8644213#9" end="9900.0" number="1"/>
<flow id="HuntFromWThru930am" begin="9000.0" departLane="random" departSpeed="avg" arrivalLane="current" from="426493699#0" to="102519704#0" end="9900.0" number="104"/>
<flow id="HuntFromWLeft930am" begin="9000.0" departLane="random" departSpeed="avg" arrivalLane="current" from="426493699#0" to="426843743" end="9900.0" number="1"/>
<flow id="HuntFromWUTurn930am" begin="9000.0" departLane="random" departSpeed="avg" arrivalLane="current" from="426493699#0" to="798289594#3" end="9900.0" number="1"/>
<flow id="ForsythRight945am" begin="9900.0" departLane="random" departSpeed="avg" arrivalLane="current" from="426843745#0" to="798289594#3" end="10800.0" number="47"/>
<flow id="ForsythThru945am" begin="9900.0" departLane="random" departSpeed="avg" arrivalLane="current" from="426843745#0" to="-8644213#9" end="10800.0" number="64"/>
<flow id="ForsythLeft945am" begin="9900.0" departLane="random" departSpeed="avg" arrivalLane="current" from="426843745#0" to="102519704#0" end="10800.0" number="3"/>
<flow id="HuntFromERight945am" begin="9900.0" departLane="random" departSpeed="avg" arrivalLane="current" from="798289594#0" to="426843743" end="10800.0" number="4"/>
<flow id="HuntFromEThru945am" begin="9900.0" departLane="random" departSpeed="avg" arrivalLane="current" from="798289594#0" to="798289594#3" end="10800.0" number="144"/>
<flow id="HuntFromELeft945am" begin="9900.0" departLane="random" departSpeed="avg" arrivalLane="current" from="798289594#0" to="-8644213#9" end="10800.0" number="28"/>
<flow id="HuntFromEUTurn945am" begin="9900.0" departLane="random" departSpeed="avg" arrivalLane="current" from="798289594#0" to="102519704#0" end="10800.0" number="1"/>
<flow id="ParkerRight945am" begin="9900.0" departLane="random" departSpeed="avg" arrivalLane="current" from="8644213#8" to="102519704#0" end="10800.0" number="21"/>
<flow id="ParkerThru945am" begin="9900.0" departLane="random" departSpeed="avg" arrivalLane="current" from="8644213#8" to="426843743" end="10800.0" number="48"/>
<flow id="ParkerLeft945am" begin="9900.0" departLane="random" departSpeed="avg" arrivalLane="current" from="8644213#8" to="798289594#3" end="10800.0" number="1"/>
<flow id="HuntFromWRight945am" begin="9900.0" departLane="random" departSpeed="avg" arrivalLane="current" from="426493699#0" to="-8644213#9" end="10800.0" number="1"/>
<flow id="HuntFromWThru945am" begin="9900.0" departLane="random" departSpeed="avg" arrivalLane="current" from="426493699#0" to="102519704#0" end="10800.0" number="112"/>
<flow id="ForsythRight10am" begin="10800.0" departLane="random" departSpeed="avg" arrivalLane="current" from="426843745#0" to="798289594#3" end="11700.0" number="44"/>
<flow id="ForsythThru10am" begin="10800.0" departLane="random" departSpeed="avg" arrivalLane="current" from="426843745#0" to="-8644213#9" end="11700.0" number="50"/>
<flow id="ForsythLeft10am" begin="10800.0" departLane="random" departSpeed="avg" arrivalLane="current" from="426843745#0" to="102519704#0" end="11700.0" number="2"/>
<flow id="HuntFromERight10am" begin="10800.0" departLane="random" departSpeed="avg" arrivalLane="current" from="798289594#0" to="426843743" end="11700.0" number="4"/>
<flow id="HuntFromEThru10am" begin="10800.0" departLane="random" departSpeed="avg" arrivalLane="current" from="798289594#0" to="798289594#3" end="11700.0" number="138"/>
<flow id="HuntFromELeft10am" begin="10800.0" departLane="random" departSpeed="avg" arrivalLane="current" from="798289594#0" to="-8644213#9" end="11700.0" number="33"/>
<flow id="ParkerRight10am" begin="10800.0" departLane="random" departSpeed="avg" arrivalLane="current" from="8644213#8" to="102519704#0" end="11700.0" number="21"/>
<flow id="ParkerThru10am" begin="10800.0" departLane="random" departSpeed="avg" arrivalLane="current" from="8644213#8" to="426843743" end="11700.0" number="61"/>
<flow id="ParkerLeft10am" begin="10800.0" departLane="random" departSpeed="avg" arrivalLane="current" from="8644213#8" to="798289594#3" end="11700.0" number="5"/>
<flow id="HuntFromWThru10am" begin="10800.0" departLane="random" departSpeed="avg" arrivalLane="current" from="426493699#0" to="102519704#0" end="11700.0" number="117"/>
<flow id="HuntFromWLeft10am" begin="10800.0" departLane="random" departSpeed="avg" arrivalLane="current" from="426493699#0" to="426843743" end="11700.0" number="1"/>
<flow id="ForsythRight1015am" begin="11700.0" departLane="random" departSpeed="avg" arrivalLane="current" from="426843745#0" to="798289594#3" end="12600.0" number="36"/>
<flow id="ForsythThru1015am" begin="11700.0" departLane="random" departSpeed="avg" arrivalLane="current" from="426843745#0" to="-8644213#9" end="12600.0" number="48"/>
<flow id="ForsythLeft1015am" begin="11700.0" departLane="random" departSpeed="avg" arrivalLane="current" from="426843745#0" to="102519704#0" end="12600.0" number="7"/>
<flow id="HuntFromERight1015am" begin="11700.0" departLane="random" departSpeed="avg" arrivalLane="current" from="798289594#0" to="426843743" end="12600.0" number="8"/>
<flow id="HuntFromEThru1015am" begin="11700.0" departLane="random" departSpeed="avg" arrivalLane="current" from="798289594#0" to="798289594#3" end="12600.0" number="111"/>
<flow id="HuntFromELeft1015am" begin="11700.0" departLane="random" departSpeed="avg" arrivalLane="current" from="798289594#0" to="-8644213#9" end="12600.0" number="33"/>
<flow id="HuntFromEUTurn1015am" begin="11700.0" departLane="random" departSpeed="avg" arrivalLane="current" from="798289594#0" to="102519704#0" end="12600.0" number="3"/>
<flow id="ParkerRight1015am" begin="11700.0" departLane="random" departSpeed="avg" arrivalLane="current" from="8644213#8" to="102519704#0" end="12600.0" number="19"/>
<flow id="ParkerThru1015am" begin="11700.0" departLane="random" departSpeed="avg" arrivalLane="current" from="8644213#8" to="426843743" end="12600.0" number="52"/>
<flow id="HuntFromWRight1015am" begin="11700.0" departLane="random" departSpeed="avg" arrivalLane="current" from="426493699#0" to="-8644213#9" end="12600.0" number="1"/>
<flow id="HuntFromWThru1015am" begin="11700.0" departLane="random" departSpeed="avg" arrivalLane="current" from="426493699#0" to="102519704#0" end="12600.0" number="118"/>
<flow id="ForsythRight1030am" begin="12600.0" departLane="random" departSpeed="avg" arrivalLane="current" from="426843745#0" to="798289594#3" end="13500.0" number="38"/>
<flow id="ForsythThru1030am" begin="12600.0" departLane="random" departSpeed="avg" arrivalLane="current" from="426843745#0" to="-8644213#9" end="13500.0" number="52"/>
<flow id="ForsythLeft1030am" begin="12600.0" departLane="random" departSpeed="avg" arrivalLane="current" from="426843745#0" to="102519704#0" end="13500.0" number="5"/>
<flow id="HuntFromERight1030am" begin="12600.0" departLane="random" departSpeed="avg" arrivalLane="current" from="798289594#0" to="426843743" end="13500.0" number="6"/>
<flow id="HuntFromEThru1030am" begin="12600.0" departLane="random" departSpeed="avg" arrivalLane="current" from="798289594#0" to="798289594#3" end="13500.0" number="120"/>
<flow id="HuntFromELeft1030am" begin="12600.0" departLane="random" departSpeed="avg" arrivalLane="current" from="798289594#0" to="-8644213#9" end="13500.0" number="23"/>
<flow id="HuntFromEUTurn1030am" begin="12600.0" departLane="random" departSpeed="avg" arrivalLane="current" from="798289594#0" to="102519704#0" end="13500.0" number="3"/>
<flow id="ParkerRight1030am" begin="12600.0" departLane="random" departSpeed="avg" arrivalLane="current" from="8644213#8" to="102519704#0" end="13500.0" number="25"/>
<flow id="ParkerThru1030am" begin="12600.0" departLane="random" departSpeed="avg" arrivalLane="current" from="8644213#8" to="426843743" end="13500.0" number="57"/>
<flow id="ParkerLeft1030am" begin="12600.0" departLane="random" departSpeed="avg" arrivalLane="current" from="8644213#8" to="798289594#3" end="13500.0" number="5"/>
<flow id="HuntFromWThru1030am" begin="12600.0" departLane="random" departSpeed="avg" arrivalLane="current" from="426493699#0" to="102519704#0" end="13500.0" number="101"/>
<flow id="HuntFromWLeft1030am" begin="12600.0" departLane="random" departSpeed="avg" arrivalLane="current" from="426493699#0" to="426843743" end="13500.0" number="1"/>
<flow id="HuntFromWUTurn1030am" begin="12600.0" departLane="random" departSpeed="avg" arrivalLane="current" from="426493699#0" to="798289594#3" end="13500.0" number="1"/>
<flow id="ForsythRight1045am" begin="13500.0" departLane="random" departSpeed="avg" arrivalLane="current" from="426843745#0" to="798289594#3" end="14400.0" number="40"/>
<flow id="ForsythThru1045am" begin="13500.0" departLane="random" departSpeed="avg" arrivalLane="current" from="426843745#0" to="-8644213#9" end="14400.0" number="38"/>
<flow id="ForsythLeft1045am" begin="13500.0" departLane="random" departSpeed="avg" arrivalLane="current" from="426843745#0" to="102519704#0" end="14400.0" number="5"/>
<flow id="HuntFromERight1045am" begin="13500.0" departLane="random" departSpeed="avg" arrivalLane="current" from="798289594#0" to="426843743" end="14400.0" number="5"/>
<flow id="HuntFromEThru1045am" begin="13500.0" departLane="random" departSpeed="avg" arrivalLane="current" from="798289594#0" to="798289594#3" end="14400.0" number="140"/>
<flow id="HuntFromELeft1045am" begin="13500.0" departLane="random" departSpeed="avg" arrivalLane="current" from="798289594#0" to="-8644213#9" end="14400.0" number="24"/>
<flow id="HuntFromEUTurn1045am" begin="13500.0" departLane="random" departSpeed="avg" arrivalLane="current" from="798289594#0" to="102519704#0" end="14400.0" number="2"/>