<?xml version="1.0" encoding="UTF-8"?>
<!-- Line 10451 has J0 the traffic light system for our intersection!-->
<!-- generated on 2022-10-27 17:58:44 by Eclipse SUMO netedit Version 1.14.1
<configuration xmlns:xsi="http://www.w3.org/2001/XMLSchema-instance" xsi:noNamespaceSchemaLocation="http://sumo.dlr.de/xsd/netconvertConfiguration.xsd">

    <input>
        <sumo-net-file value="C:\Users\Maura\Sumo\Intersection\osm.net.xml"/>
    </input>

    <output>
        <output-file value="C:\Users\Maura\Sumo\Intersection\osm.net.xml"/>
        <output.street-names value="true"/>
    </output>

    <processing>
        <geometry.min-radius.fix.railways value="false"/>
        <geometry.max-grade.fix value="false"/>
        <offset.disable-normalization value="true"/>
        <lefthand value="false"/>
    </processing>

    <junctions>
        <no-turnarounds value="true"/>
        <junctions.corner-detail value="5"/>
        <junctions.limit-turn-speed value="5.5"/>
        <rectangular-lane-cut value="false"/>
    </junctions>

    <pedestrian>
        <walkingareas value="false"/>
    </pedestrian>

</configuration>
-->

<net version="1.9" junctionCornerDetail="5" limitTurnSpeed="5.50" xmlns:xsi="http://www.w3.org/2001/XMLSchema-instance" xsi:noNamespaceSchemaLocation="http://sumo.dlr.de/xsd/net_file.xsd">

    <location netOffset="-326766.19,-4688915.45" convBoundary="0.00,0.00,1614.69,1310.39" origBoundary="-71.103027,42.333397,-71.083315,42.346680" projParameter="+proj=utm +zone=19 +ellps=WGS84 +datum=WGS84 +units=m +no_defs"/>

    <type id="highway.bridleway" priority="1" numLanes="1" speed="2.78" allow="pedestrian" oneway="1" width="2.00"/>
    <type id="highway.bus_guideway" priority="1" numLanes="1" speed="27.78" allow="bus" oneway="1"/>
    <type id="highway.cycleway" priority="1" numLanes="1" speed="5.56" allow="bicycle" oneway="0" width="1.00"/>
    <type id="highway.footway" priority="1" numLanes="1" speed="2.78" allow="pedestrian" oneway="1" width="2.00"/>
    <type id="highway.ford" priority="1" numLanes="1" speed="2.78" allow="army" oneway="0"/>
    <type id="highway.living_street" priority="2" numLanes="1" speed="2.78" disallow="tram rail_urban rail rail_electric rail_fast ship" oneway="0"/>
    <type id="highway.motorway" priority="14" numLanes="2" speed="39.44" allow="private emergency authority army vip passenger hov taxi bus coach delivery truck trailer motorcycle evehicle custom1 custom2" oneway="1"/>
    <type id="highway.motorway_link" priority="9" numLanes="1" speed="22.22" allow="private emergency authority army vip passenger hov taxi bus coach delivery truck trailer motorcycle evehicle custom1 custom2" oneway="1"/>
    <type id="highway.path" priority="1" numLanes="1" speed="5.56" allow="pedestrian bicycle" oneway="0" width="2.00"/>
    <type id="highway.pedestrian" priority="1" numLanes="1" speed="2.78" allow="pedestrian" oneway="1" width="2.00"/>
    <type id="highway.primary" priority="12" numLanes="2" speed="27.78" disallow="tram rail_urban rail rail_electric rail_fast ship" oneway="0"/>
    <type id="highway.primary_link" priority="7" numLanes="1" speed="22.22" disallow="tram rail_urban rail rail_electric rail_fast ship" oneway="0"/>
    <type id="highway.raceway" priority="15" numLanes="2" speed="83.33" allow="vip" oneway="0"/>
    <type id="highway.residential" priority="3" numLanes="1" speed="13.89" disallow="tram rail_urban rail rail_electric rail_fast ship" oneway="0"/>
    <type id="highway.secondary" priority="11" numLanes="1" speed="27.78" disallow="tram rail_urban rail rail_electric rail_fast ship" oneway="0"/>
    <type id="highway.secondary_link" priority="6" numLanes="1" speed="22.22" disallow="tram rail_urban rail rail_electric rail_fast ship" oneway="0"/>
    <type id="highway.service" priority="1" numLanes="1" speed="5.56" allow="pedestrian delivery bicycle" oneway="0"/>
    <type id="highway.stairs" priority="1" numLanes="1" speed="1.39" allow="pedestrian" oneway="1" width="2.00"/>
    <type id="highway.step" priority="1" numLanes="1" speed="1.39" allow="pedestrian" oneway="1" width="2.00"/>
    <type id="highway.steps" priority="1" numLanes="1" speed="1.39" allow="pedestrian" oneway="1" width="2.00"/>
    <type id="highway.tertiary" priority="10" numLanes="1" speed="22.22" disallow="tram rail_urban rail rail_electric rail_fast ship" oneway="0"/>
    <type id="highway.tertiary_link" priority="5" numLanes="1" speed="22.22" disallow="tram rail_urban rail rail_electric rail_fast ship" oneway="0"/>
    <type id="highway.track" priority="1" numLanes="1" speed="5.56" allow="pedestrian motorcycle moped bicycle" oneway="0"/>
    <type id="highway.trunk" priority="13" numLanes="2" speed="27.78" disallow="pedestrian bicycle tram rail_urban rail rail_electric rail_fast ship" oneway="0"/>
    <type id="highway.trunk_link" priority="8" numLanes="1" speed="22.22" disallow="pedestrian bicycle tram rail_urban rail rail_electric rail_fast ship" oneway="0"/>
    <type id="highway.unclassified" priority="4" numLanes="1" speed="13.89" disallow="tram rail_urban rail rail_electric rail_fast ship" oneway="0"/>
    <type id="highway.unsurfaced" priority="1" numLanes="1" speed="8.33" disallow="tram rail_urban rail rail_electric rail_fast ship" oneway="0"/>
    <type id="railway.highspeed" priority="21" numLanes="1" speed="69.44" allow="rail_fast" oneway="1"/>
    <type id="railway.light_rail" priority="19" numLanes="1" speed="27.78" allow="rail_urban" oneway="1"/>
    <type id="railway.preserved" priority="16" numLanes="1" speed="27.78" allow="rail" oneway="1"/>
    <type id="railway.rail" priority="20" numLanes="1" speed="44.44" allow="rail" oneway="1"/>
    <type id="railway.subway" priority="18" numLanes="1" speed="27.78" allow="rail_urban" oneway="1"/>
    <type id="railway.tram" priority="17" numLanes="1" speed="13.89" allow="tram" oneway="1"/>

    <edge id=":1004967095_0" function="internal">
        <lane id=":1004967095_0_0" index="0" disallow="tram rail_urban rail rail_electric rail_fast ship" speed="19.48" length="3.17" shape="807.02,829.18 807.87,829.59 808.46,829.85 809.06,830.08 809.94,830.40"/>
    </edge>
    <edge id=":1004967095_1" function="internal">
        <lane id=":1004967095_1_0" index="0" disallow="tram rail_urban rail rail_electric rail_fast ship" speed="27.78" length="3.35" shape="805.61,832.34 808.86,833.42"/>
        <lane id=":1004967095_1_1" index="1" disallow="tram rail_urban rail rail_electric rail_fast ship" speed="27.78" length="3.35" shape="804.68,835.40 807.79,836.43"/>
    </edge>
    <edge id=":1016874728_0" function="internal">
        <lane id=":1016874728_0_0" index="0" allow="pedestrian delivery bicycle" speed="3.65" length="4.67" shape="947.98,861.95 948.18,860.52 948.72,859.81 949.61,859.82 950.86,860.55"/>
    </edge>
    <edge id=":1020683550_0" function="internal">
        <lane id=":1020683550_0_0" index="0" allow="pedestrian delivery bicycle" speed="5.56" length="13.21" shape="1162.47,925.02 1149.56,927.83"/>
    </edge>
    <edge id=":1020683550_1" function="internal">
        <lane id=":1020683550_1_0" index="0" allow="pedestrian delivery bicycle" speed="5.56" length="14.09" shape="1162.47,925.02 1158.99,925.10 1155.77,924.10 1152.62,922.48 1149.37,920.73"/>
    </edge>
    <edge id=":1020683550_2" function="internal">
        <lane id=":1020683550_2_0" index="0" allow="pedestrian delivery bicycle" speed="3.65" length="4.67" shape="1162.47,925.02 1161.13,924.49 1160.57,923.79 1160.80,922.92 1161.80,921.89"/>
    </edge>
    <edge id=":1020683550_3" function="internal">
        <lane id=":1020683550_3_0" index="0" allow="pedestrian delivery bicycle" speed="5.56" length="12.08" shape="1150.79,917.86 1153.71,919.57 1156.14,921.10 1158.65,922.01 1161.80,921.89"/>
    </edge>
    <edge id=":1020683550_4" function="internal">
        <lane id=":1020683550_4_0" index="0" allow="pedestrian delivery bicycle" speed="5.56" length="18.01" shape="1150.79,917.86 1155.80,921.01 1157.27,923.72 1155.19,925.99 1149.56,927.83"/>
    </edge>
    <edge id=":1020683550_5" function="internal">
        <lane id=":1020683550_5_0" index="0" allow="pedestrian delivery bicycle" speed="3.65" length="4.67" shape="1150.79,917.86 1151.51,919.11 1151.51,920.00 1150.80,920.54 1149.37,920.73"/>
    </edge>
    <edge id=":1020683550_6" function="internal">
        <lane id=":1020683550_6_0" index="0" allow="pedestrian delivery bicycle" speed="4.73" length="7.19" shape="1148.88,924.71 1151.13,923.97 1151.96,923.06 1151.37,921.98 1149.37,920.73"/>
    </edge>
    <edge id=":1020683550_7" function="internal">
        <lane id=":1020683550_7_0" index="0" allow="pedestrian delivery bicycle" speed="5.56" length="13.23" shape="1148.88,924.71 1161.80,921.89"/>
    </edge>
    <edge id=":1020683550_8" function="internal">
        <lane id=":1020683550_8_0" index="0" allow="pedestrian delivery bicycle" speed="3.65" length="4.67" shape="1148.88,924.71 1150.22,925.23 1150.78,925.93 1150.56,926.80 1149.56,927.83"/>
    </edge>
    <edge id=":1020683584_0" function="internal">
        <lane id=":1020683584_0_0" index="0" allow="pedestrian delivery bicycle" speed="5.08" length="4.99" shape="1094.61,893.60 1093.33,893.17 1092.20,893.26 1091.24,893.86 1090.43,894.96"/>
    </edge>
    <edge id=":1020683584_1" function="internal">
        <lane id=":1020683584_1_0" index="0" allow="pedestrian delivery bicycle" speed="3.65" length="1.30" shape="1094.61,893.60 1093.96,892.47"/>
    </edge>
    <edge id=":1020683584_4" function="internal">
        <lane id=":1020683584_4_0" index="0" allow="pedestrian delivery bicycle" speed="3.65" length="3.37" shape="1093.96,892.47 1093.89,892.35 1093.89,891.45 1094.60,890.91 1096.04,890.73"/>
    </edge>
    <edge id=":1020683584_2" function="internal">
        <lane id=":1020683584_2_0" index="0" allow="pedestrian delivery bicycle" speed="5.56" length="10.08" shape="1087.58,893.50 1089.21,891.26 1091.16,890.05 1093.43,889.88 1096.04,890.73"/>
    </edge>
    <edge id=":1020683584_3" function="internal">
        <lane id=":1020683584_3_0" index="0" allow="pedestrian delivery bicycle" speed="3.65" length="1.44" shape="1087.58,893.50 1088.84,892.80"/>
    </edge>
    <edge id=":1020683584_5" function="internal">
        <lane id=":1020683584_5_0" index="0" allow="pedestrian delivery bicycle" speed="3.65" length="3.23" shape="1088.84,892.80 1089.74,892.81 1090.27,893.53 1090.43,894.96"/>
    </edge>
    <edge id=":1020683588_0" function="internal">
        <lane id=":1020683588_0_0" index="0" allow="pedestrian delivery bicycle" speed="5.56" length="15.36" shape="1179.87,917.03 1178.05,919.28 1175.25,921.22 1171.46,922.83 1166.69,924.11"/>
    </edge>
    <edge id=":1020683588_1" function="internal">
        <lane id=":1020683588_1_0" index="0" allow="pedestrian delivery bicycle" speed="5.56" length="14.81" shape="1179.87,917.03 1177.91,919.07 1175.03,919.75 1171.23,919.06 1166.51,917.01"/>
    </edge>
    <edge id=":1020683588_2" function="internal">
        <lane id=":1020683588_2_0" index="0" allow="pedestrian delivery bicycle" speed="3.65" length="4.67" shape="1179.87,917.03 1178.59,917.69 1177.70,917.66 1177.19,916.93 1177.06,915.49"/>
    </edge>
    <edge id=":1020683588_3" function="internal">
        <lane id=":1020683588_3_0" index="0" allow="pedestrian delivery bicycle" speed="5.56" length="9.85" shape="1168.00,914.18 1171.41,915.76 1174.06,916.51 1175.94,916.42 1177.06,915.49"/>
    </edge>
    <edge id=":1020683588_4" function="internal">
        <lane id=":1020683588_4_0" index="0" allow="pedestrian delivery bicycle" speed="5.56" length="17.57" shape="1168.00,914.18 1172.79,917.38 1174.17,920.10 1172.14,922.34 1166.69,924.11"/>
    </edge>
    <edge id=":1020683588_5" function="internal">
        <lane id=":1020683588_5_0" index="0" allow="pedestrian delivery bicycle" speed="3.65" length="4.67" shape="1168.00,914.18 1168.69,915.45 1168.67,916.34 1167.94,916.86 1166.51,917.01"/>
    </edge>
    <edge id=":1020683588_6" function="internal">
        <lane id=":1020683588_6_0" index="0" allow="pedestrian delivery bicycle" speed="4.71" length="7.05" shape="1165.98,921.00 1168.16,920.28 1168.98,919.38 1168.43,918.29 1166.51,917.01"/>
    </edge>
    <edge id=":1020683588_7" function="internal">
        <lane id=":1020683588_7_0" index="0" allow="pedestrian delivery bicycle" speed="5.56" length="12.67" shape="1165.98,921.00 1170.10,919.92 1173.32,918.64 1175.64,917.16 1177.06,915.49"/>
    </edge>
    <edge id=":1020683588_8" function="internal">
        <lane id=":1020683588_8_0" index="0" allow="pedestrian delivery bicycle" speed="3.65" length="4.67" shape="1165.98,921.00 1167.32,921.51 1167.89,922.20 1167.68,923.07 1166.69,924.11"/>
    </edge>
    <edge id=":1020683617_0" function="internal">
        <lane id=":1020683617_0_0" index="0" allow="pedestrian delivery bicycle" speed="3.65" length="4.67" shape="1095.56,879.47 1094.88,878.21 1094.90,877.31 1095.62,876.79 1097.06,876.65"/>
    </edge>
    <edge id=":1021422107_0" function="internal">
        <lane id=":1021422107_0_0" index="0" allow="pedestrian delivery bicycle" speed="5.56" length="6.03" shape="592.41,406.13 588.04,401.97"/>
    </edge>
    <edge id=":1021422107_1" function="internal">
        <lane id=":1021422107_1_0" index="0" allow="pedestrian delivery bicycle" speed="3.65" length="4.67" shape="592.41,406.13 592.12,404.72 592.40,403.87 593.25,403.58 594.67,403.87"/>
    </edge>
    <edge id=":1021422107_2" function="internal">
        <lane id=":1021422107_2_0" index="0" allow="pedestrian delivery bicycle" speed="4.77" length="5.44" shape="595.35,399.57 594.07,400.47 593.52,401.48 593.72,402.61 594.67,403.87"/>
    </edge>
    <edge id=":1021422107_3" function="internal">
        <lane id=":1021422107_3_0" index="0" allow="pedestrian delivery bicycle" speed="5.56" length="7.83" shape="595.35,399.57 592.51,400.92 590.34,401.77 588.85,402.12 588.04,401.97"/>
    </edge>
    <edge id=":1021422107_4" function="internal">
        <lane id=":1021422107_4_0" index="0" allow="pedestrian delivery bicycle" speed="5.56" length="6.27" shape="590.13,399.54 594.67,403.87"/>
    </edge>
    <edge id=":1021422107_5" function="internal">
        <lane id=":1021422107_5_0" index="0" allow="pedestrian delivery bicycle" speed="3.65" length="4.67" shape="590.13,399.54 590.52,400.93 590.30,401.80 589.47,402.14 588.04,401.97"/>
    </edge>
    <edge id=":1021422199_0" function="internal">
        <lane id=":1021422199_0_0" index="0" allow="pedestrian delivery bicycle" speed="3.65" length="4.67" shape="615.73,534.61 617.17,534.63 617.94,535.08 618.04,535.97 617.47,537.29"/>
    </edge>
    <edge id=":1021422335_0" function="internal">
        <lane id=":1021422335_0_0" index="0" allow="pedestrian delivery bicycle" speed="5.56" length="3.75" shape="571.48,387.70 570.63,386.99 569.99,386.57 569.27,386.30 568.19,386.04"/>
    </edge>
    <edge id=":1021422335_1" function="internal">
        <lane id=":1021422335_1_0" index="0" allow="pedestrian delivery bicycle" speed="3.65" length="4.67" shape="571.48,387.70 571.09,386.31 571.31,385.44 572.14,385.09 573.57,385.27"/>
    </edge>
    <edge id=":1021422335_2" function="internal">
        <lane id=":1021422335_2_0" index="0" allow="pedestrian delivery bicycle" speed="5.56" length="4.37" shape="570.82,381.94 571.42,383.08 571.93,383.81 572.58,384.43 573.57,385.27"/>
    </edge>
    <edge id=":1021422335_3" function="internal">
        <lane id=":1021422335_3_0" index="0" allow="pedestrian delivery bicycle" speed="4.94" length="7.22" shape="570.82,381.94 571.61,384.17 571.44,385.60 570.30,386.22 568.19,386.04"/>
    </edge>
    <edge id=":1021428306_0" function="internal">
        <lane id=":1021428306_0_0" index="0" allow="pedestrian bicycle" speed="5.10" length="4.74" width="2.00" shape="752.87,848.85 751.62,848.57 750.52,848.70 749.57,849.25 748.79,850.22"/>
    </edge>
    <edge id=":1021428306_1" function="internal">
        <lane id=":1021428306_1_0" index="0" allow="pedestrian bicycle" speed="5.56" length="7.46" width="2.00" shape="752.87,848.85 750.80,848.08 749.40,847.50 748.05,846.82 746.10,845.76"/>
    </edge>
    <edge id=":1021428306_2" function="internal">
        <lane id=":1021428306_2_0" index="0" allow="pedestrian bicycle" speed="5.56" length="7.51" width="2.00" shape="752.87,848.85 751.04,847.86 750.03,846.53 749.82,844.88 750.43,842.89"/>
    </edge>
    <edge id=":1021428306_3" function="internal">
        <lane id=":1021428306_3_0" index="0" allow="pedestrian bicycle" speed="2.89" length="2.92" width="2.00" shape="752.87,848.85 752.34,848.12 752.28,847.57 752.69,847.19 753.57,846.98"/>
    </edge>
    <edge id=":1021428306_4" function="internal">
        <lane id=":1021428306_4_0" index="0" allow="pedestrian bicycle" speed="4.34" length="4.08" width="2.00" shape="752.24,843.74 751.91,844.82 752.02,845.72 752.57,846.44 753.57,846.98"/>
    </edge>
    <edge id=":1021428306_5" function="internal">
        <lane id=":1021428306_5_0" index="0" allow="pedestrian bicycle" speed="5.56" length="7.35" width="2.00" shape="752.24,843.74 751.31,845.71 750.64,847.04 749.90,848.34 748.79,850.22"/>
    </edge>
    <edge id=":1021428306_6" function="internal">
        <lane id=":1021428306_6_0" index="0" allow="pedestrian bicycle" speed="5.56" length="7.48" width="2.00" shape="752.24,843.74 751.10,845.47 749.70,846.39 748.03,846.48 746.10,845.76"/>
    </edge>
    <edge id=":1021428306_7" function="internal">
        <lane id=":1021428306_7_0" index="0" allow="pedestrian bicycle" speed="2.89" length="2.92" width="2.00" shape="752.24,843.74 751.47,844.20 750.91,844.22 750.56,843.78 750.43,842.89"/>
    </edge>
    <edge id=":1021428306_8" function="internal">
        <lane id=":1021428306_8_0" index="0" allow="pedestrian bicycle" speed="4.38" length="4.10" width="2.00" shape="747.07,844.01 748.12,844.40 749.03,844.35 749.80,843.84 750.43,842.89"/>
    </edge>
    <edge id=":1021428306_9" function="internal">
        <lane id=":1021428306_9_0" index="0" allow="pedestrian bicycle" speed="5.56" length="7.15" width="2.00" shape="747.07,844.01 748.93,845.03 750.24,845.68 751.58,846.23 753.57,846.98"/>
    </edge>
    <edge id=":1021428306_10" function="internal">
        <lane id=":1021428306_10_0" index="0" allow="pedestrian bicycle" speed="5.56" length="7.41" width="2.00" shape="747.07,844.01 748.71,845.24 749.55,846.69 749.57,848.35 748.79,850.22"/>
    </edge>
    <edge id=":1021428306_11" function="internal">
        <lane id=":1021428306_11_0" index="0" allow="pedestrian bicycle" speed="2.89" length="2.92" width="2.00" shape="747.07,844.01 747.49,844.81 747.46,845.37 747.00,845.68 746.10,845.76"/>
    </edge>
    <edge id=":1021428306_12" function="internal">
        <lane id=":1021428306_12_0" index="0" allow="pedestrian bicycle" speed="4.42" length="4.10" width="2.00" shape="747.07,849.19 747.50,848.16 747.48,847.24 747.02,846.44 746.10,845.76"/>
    </edge>
    <edge id=":1021428306_13" function="internal">
        <lane id=":1021428306_13_0" index="0" allow="pedestrian bicycle" speed="5.56" length="7.15" width="2.00" shape="747.07,849.19 748.16,847.37 748.87,846.10 749.52,844.80 750.43,842.89"/>
    </edge>
    <edge id=":1021428306_14" function="internal">
        <lane id=":1021428306_14_0" index="0" allow="pedestrian bicycle" speed="5.56" length="7.54" width="2.00" shape="747.07,849.19 748.33,847.64 749.83,846.75 751.58,846.53 753.57,846.98"/>
    </edge>
    <edge id=":1021428306_15" function="internal">
        <lane id=":1021428306_15_0" index="0" allow="pedestrian bicycle" speed="2.89" length="2.92" width="2.00" shape="747.07,849.19 747.89,848.80 748.44,848.85 748.74,849.32 748.79,850.22"/>
    </edge>
    <edge id=":1021955137_0" function="internal">
        <lane id=":1021955137_0_0" index="0" disallow="tram rail_urban rail rail_electric rail_fast ship" speed="11.18" length="4.91" shape="985.75,564.33 983.32,560.07"/>
    </edge>
    <edge id=":1021955157_0" function="internal">
        <lane id=":1021955157_0_0" index="0" disallow="tram rail_urban rail rail_electric rail_fast ship" speed="11.18" length="5.25" shape="950.80,304.92 950.15,303.50 949.69,302.53 949.18,301.59 948.41,300.24"/>
    </edge>
    <edge id=":1021955157_1" function="internal">
        <lane id=":1021955157_1_0" index="0" disallow="tram rail_urban rail rail_electric rail_fast ship" speed="11.18" length="5.56" shape="951.19,298.64 952.00,300.08 952.54,301.07 953.03,302.09 953.71,303.59"/>
    </edge>
    <edge id=":1021955296_0" function="internal">
        <lane id=":1021955296_0_0" index="0" allow="pedestrian delivery bicycle" speed="3.65" length="4.67" shape="1064.16,774.51 1065.42,773.82 1066.32,773.83 1066.84,774.55 1067.00,775.99"/>
    </edge>
    <edge id=":1024494042_0" function="internal">
        <lane id=":1024494042_0_0" index="0" allow="pedestrian delivery bicycle" speed="3.65" length="4.67" shape="1321.22,918.76 1321.48,920.18 1321.18,921.02 1320.32,921.29 1318.92,920.98"/>
    </edge>
    <edge id=":1024494044_0" function="internal">
        <lane id=":1024494044_0_0" index="0" allow="pedestrian delivery bicycle" speed="6.04" length="7.87" shape="1138.42,816.34 1137.28,815.40 1136.86,813.91 1137.17,811.87 1138.21,809.29"/>
    </edge>
    <edge id=":1024494044_1" function="internal">
        <lane id=":1024494044_1_0" index="0" allow="pedestrian delivery bicycle" speed="3.65" length="4.67" shape="1138.42,816.34 1137.65,815.12 1137.60,814.23 1138.29,813.66 1139.71,813.41"/>
    </edge>
    <edge id=":1024494044_2" function="internal">
        <lane id=":1024494044_2_0" index="0" disallow="tram rail_urban rail rail_electric rail_fast ship" speed="11.18" length="9.41" shape="1134.07,817.73 1138.21,809.29"/>
    </edge>
    <edge id=":1024494044_3" function="internal">
        <lane id=":1024494044_3_0" index="0" allow="pedestrian delivery bicycle" speed="6.19" length="7.82" shape="1134.07,817.73 1135.45,815.36 1136.85,813.85 1138.27,813.20 1139.71,813.41"/>
    </edge>
    <edge id=":1029125634_0" function="internal">
        <lane id=":1029125634_0_0" index="0" allow="pedestrian delivery bicycle" speed="5.56" length="5.78" shape="1233.88,317.54 1232.52,316.50 1231.64,315.72 1230.84,314.85 1229.75,313.52"/>
    </edge>
    <edge id=":1029146179_0" function="internal">
        <lane id=":1029146179_0_0" index="0" allow="bicycle" speed="2.04" length="1.46" width="1.00" shape="1261.73,318.92 1261.28,318.99 1261.02,318.90 1260.94,318.63 1261.05,318.19"/>
    </edge>
    <edge id=":1029146210_0" function="internal">
        <lane id=":1029146210_0_0" index="0" allow="bicycle" speed="2.04" length="1.46" width="1.00" shape="1300.20,265.12 1300.59,264.89 1300.87,264.88 1301.04,265.10 1301.11,265.54"/>
    </edge>
    <edge id=":1037956748_0" function="internal">
        <lane id=":1037956748_0_0" index="0" allow="pedestrian bicycle" speed="2.89" length="2.92" width="2.00" shape="1194.01,541.80 1193.11,541.74 1192.65,541.43 1192.62,540.87 1193.02,540.06"/>
    </edge>
    <edge id=":1037966246_0" function="internal">
        <lane id=":1037966246_0_0" index="0" allow="pedestrian delivery bicycle" speed="3.65" length="4.67" shape="1269.05,681.69 1267.61,681.76 1266.81,681.35 1266.66,680.47 1267.15,679.11"/>
    </edge>
    <edge id=":1037989319_0" function="internal">
        <lane id=":1037989319_0_0" index="0" allow="pedestrian bicycle" speed="2.04" length="1.46" width="1.00" shape="1051.19,216.73 1051.06,216.29 1051.12,216.02 1051.38,215.91 1051.83,215.96"/>
    </edge>
    <edge id=":1185732829_0" function="internal">
        <lane id=":1185732829_0_0" index="0" allow="pedestrian delivery bicycle" speed="3.65" length="4.67" shape="1122.75,600.97 1121.62,601.87 1120.74,602.01 1120.10,601.39 1119.70,600.01"/>
    </edge>
    <edge id=":1185732852_0" function="internal">
        <lane id=":1185732852_0_0" index="0" allow="pedestrian bicycle" speed="2.89" length="2.92" width="2.00" shape="1212.24,584.14 1211.43,583.74 1211.12,583.28 1211.30,582.75 1211.97,582.15"/>
    </edge>
    <edge id=":1185732859_0" function="internal">
        <lane id=":1185732859_0_0" index="0" disallow="tram rail_urban rail rail_electric rail_fast ship" speed="11.18" length="8.08" shape="1157.47,753.79 1164.63,757.38"/>
        <lane id=":1185732859_0_1" index="1" disallow="tram rail_urban rail rail_electric rail_fast ship" speed="11.18" length="8.08" shape="1155.99,756.63 1163.27,760.28"/>
    </edge>
    <edge id=":1185732866_0" function="internal">
        <lane id=":1185732866_0_0" index="0" allow="pedestrian delivery bicycle" speed="5.56" length="6.19" shape="1136.57,551.96 1136.98,553.73 1137.07,554.99 1136.83,556.25 1136.30,557.99"/>
    </edge>
    <edge id=":1185732866_1" function="internal">
        <lane id=":1185732866_1_0" index="0" allow="pedestrian delivery bicycle" speed="3.65" length="1.44" shape="1136.57,551.96 1136.11,553.32"/>
    </edge>
    <edge id=":1185732866_4" function="internal">
        <lane id=":1185732866_4_0" index="0" allow="pedestrian delivery bicycle" speed="3.65" length="3.23" shape="1136.11,553.32 1135.44,553.92 1134.56,553.74 1133.48,552.78"/>
    </edge>
    <edge id=":1185732866_2" function="internal">
        <lane id=":1185732866_2_0" index="0" allow="pedestrian delivery bicycle" speed="5.56" length="4.36" shape="1133.24,557.03 1133.63,555.80 1133.81,554.92 1133.76,554.03 1133.48,552.78"/>
    </edge>
    <edge id=":1185732866_3" function="internal">
        <lane id=":1185732866_3_0" index="0" allow="pedestrian delivery bicycle" speed="3.65" length="1.44" shape="1133.24,557.03 1134.37,556.13"/>
    </edge>
    <edge id=":1185732866_5" function="internal">
        <lane id=":1185732866_5_0" index="0" allow="pedestrian delivery bicycle" speed="3.65" length="3.23" shape="1134.37,556.13 1135.25,555.99 1135.89,556.61 1136.30,557.99"/>
    </edge>
    <edge id=":1325488921_0" function="internal">
        <lane id=":1325488921_0_0" index="0" disallow="tram rail_urban rail rail_electric rail_fast ship" speed="11.18" length="5.40" shape="782.74,808.14 785.81,803.70"/>
    </edge>
    <edge id=":1325488944_0" function="internal">
        <lane id=":1325488944_0_0" index="0" allow="pedestrian delivery bicycle" speed="5.03" length="5.02" shape="750.56,572.23 749.25,571.79 748.13,571.88 747.18,572.49 746.40,573.63"/>
    </edge>
    <edge id=":1325488944_1" function="internal">
        <lane id=":1325488944_1_0" index="0" disallow="tram rail_urban rail rail_electric rail_fast ship" speed="27.78" length="9.40" shape="750.56,572.23 742.16,568.01"/>
        <lane id=":1325488944_1_1" index="1" disallow="tram rail_urban rail rail_electric rail_fast ship" speed="27.78" length="9.40" shape="752.00,569.37 743.59,565.15"/>
    </edge>
    <edge id=":1325488944_3" function="internal">
        <lane id=":1325488944_3_0" index="0" allow="pedestrian delivery bicycle" speed="5.08" length="5.05" shape="743.53,572.23 743.96,570.90 743.88,569.76 743.27,568.79 742.16,568.01"/>
    </edge>
    <edge id=":1325488944_4" function="internal">
        <lane id=":1325488944_4_0" index="0" allow="pedestrian delivery bicycle" speed="3.65" length="4.67" shape="743.53,572.23 744.77,571.51 745.67,571.50 746.21,572.21 746.40,573.63"/>
    </edge>
    <edge id=":1325488953_0" function="internal">
        <lane id=":1325488953_0_0" index="0" allow="pedestrian delivery bicycle" speed="5.10" length="5.08" shape="791.79,593.00 790.50,592.56 789.36,592.65 788.38,593.27 787.55,594.42"/>
    </edge>
    <edge id=":1325488953_1" function="internal">
        <lane id=":1325488953_1_0" index="0" disallow="tram rail_urban rail rail_electric rail_fast ship" speed="27.78" length="9.43" shape="791.79,593.00 783.39,588.73"/>
        <lane id=":1325488953_1_1" index="1" disallow="tram rail_urban rail rail_electric rail_fast ship" speed="27.78" length="9.43" shape="793.25,590.15 784.83,585.88"/>
    </edge>
    <edge id=":1325488953_3" function="internal">
        <lane id=":1325488953_3_0" index="0" allow="pedestrian delivery bicycle" speed="5.02" length="5.03" shape="784.72,592.91 785.19,591.61 785.13,590.48 784.53,589.52 783.39,588.73"/>
    </edge>
    <edge id=":1325488953_4" function="internal">
        <lane id=":1325488953_4_0" index="0" allow="pedestrian delivery bicycle" speed="3.65" length="4.67" shape="784.72,592.91 785.99,592.23 786.89,592.25 787.41,592.98 787.55,594.42"/>
    </edge>
    <edge id=":1325488954_0" function="internal">
        <lane id=":1325488954_0_0" index="0" disallow="tram rail_urban rail rail_electric rail_fast ship" speed="11.18" length="6.24" shape="797.00,808.88 796.68,815.11"/>
    </edge>
    <edge id=":1325488955_0" function="internal">
        <lane id=":1325488955_0_0" index="0" allow="pedestrian bicycle" speed="5.56" length="5.40" width="2.00" shape="577.95,699.17 577.26,700.61 576.89,701.64 576.68,702.72 576.46,704.31"/>
    </edge>
    <edge id=":1325488955_1" function="internal">
        <lane id=":1325488955_1_0" index="0" allow="pedestrian bicycle" speed="2.89" length="0.79" width="2.00" shape="577.95,699.17 577.26,699.56"/>
    </edge>
    <edge id=":1325488955_4" function="internal">
        <lane id=":1325488955_4_0" index="0" allow="pedestrian bicycle" speed="2.89" length="2.13" width="2.00" shape="577.26,699.56 577.17,699.61 576.61,699.60 576.28,699.15 576.17,698.26"/>
    </edge>
    <edge id=":1325488955_2" function="internal">
        <lane id=":1325488955_2_0" index="0" allow="pedestrian bicycle" speed="5.56" length="6.07" width="2.00" shape="574.48,704.04 574.72,702.25 574.97,701.04 575.39,699.87 576.17,698.26"/>
    </edge>
    <edge id=":1325488955_3" function="internal">
        <lane id=":1325488955_3_0" index="0" allow="pedestrian bicycle" speed="2.89" length="2.41" width="2.00" shape="574.48,704.04 575.08,703.36 575.61,703.18 576.07,703.50 576.24,703.85"/>
    </edge>
    <edge id=":1325488955_5" function="internal">