<?xml version="1.0" encoding="UTF-8"?>

<!-- generated on 2022-10-27 10:37:02 by Eclipse SUMO polyconvert Version 1.14.1
<configuration xmlns:xsi="http://www.w3.org/2001/XMLSchema-instance" xsi:noNamespaceSchemaLocation="http://sumo.dlr.de/xsd/polyconvertConfiguration.xsd">

    <input>
        <net-file value="osm.net.xml"/>
        <osm-files value="osm_bbox.osm.xml.gz"/>
        <osm.keep-full-type value="true"/>
        <type-file value="C:\Program%20Files%20(x86)\Eclipse\Sumo\data\typemap\osmPolyconvert.typ.xml"/>
    </input>

    <output>
        <output-file value="osm.poly.xml"/>
    </output>

    <report>
        <verbose value="true"/>
    </report>

</configuration>
-->

<additional xmlns:xsi="http://www.w3.org/2001/XMLSchema-instance" xsi:noNamespaceSchemaLocation="http://sumo.dlr.de/xsd/additional_file.xsd">
    <location netOffset="-326766.19,-4688915.45" convBoundary="0.00,-263.99,2161.39,1943.26" origBoundary="-71.103027,42.331311,-71.076425,42.350907" projParameter="+proj=utm +zone=19 +ellps=WGS84 +datum=WGS84 +units=m +no_defs"/>

    <poly id="102665161" type="amenity.parking" color="184,184,179" fill="1" layer="-1.00" shape="1074.544128,541.972625 1110.024451,546.056201 1110.925651,537.778625 1088.932834,529.063641 1086.420645,534.847515 1075.664992,533.578534 1074.544128,541.972625"/>
    <poly id="1042014734" type="leisure.pitch" color="207,245,201" fill="1" layer="-2.00" shape="920.920089,534.483392 909.930731,528.742695 921.442784,506.470915 932.780588,512.636388 920.920089,534.483392"/>
    <poly id="1042014734#1" type="sport.beachvolleyball" color="79,230,125" fill="1" layer="-2.00" shape="920.920089,534.483392 909.930731,528.742695 921.442784,506.470915 932.780588,512.636388 920.920089,534.483392"/>
    <poly id="1042016387" type="leisure.garden" color="207,245,201" fill="1" layer="-2.00" shape="891.409046,377.667064 901.347684,391.955698 951.399779,363.047187 942.721655,345.038647 936.559897,348.567923 935.021115,345.328038 892.680973,367.713685 886.779542,373.781013 891.409046,377.667064"/>
    <poly id="1074010418" type="landuse.grass" color="194,194,130" fill="1" layer="-3.00" shape="1196.474087,728.085213 1195.873248,729.799944 1194.991658,732.166005 1195.229840,734.815670 1195.771304,736.724564 1197.009456,738.471904 1199.776654,741.392783 1203.112933,743.655252 1206.833020,744.763868 1211.278825,744.543574 1214.592589,743.539984 1217.339307,740.928124 1218.218893,737.473243 1217.443611,734.770102 1215.847525,732.209339 1213.747225,729.927622 1211.112871,727.381247 1207.150326,726.134140 1204.697139,725.594398 1202.185024,726.011646 1198.638735,726.609847 1196.474087,728.085213"/>
    <poly id="1074010419" type="landuse.grass" color="194,194,130" fill="1" layer="-3.00" shape="1173.459368,752.572373 1183.003263,744.793610 1189.938276,739.867786 1191.564440,739.961176 1192.620104,740.990786 1193.711663,742.475064 1196.277933,744.934217 1198.722106,746.785268 1201.893190,748.362915 1205.495432,749.707755 1208.330400,749.682573 1211.097498,749.914611 1212.401934,751.004780 1212.337325,753.073002 1212.316679,756.595677 1211.535062,771.759084 1199.794154,766.269750 1184.356443,758.271278 1173.459368,752.572373"/>
    <poly id="1074010420" type="landuse.grass" color="194,194,130" fill="1" layer="-3.00" shape="1216.811010,774.462803 1217.184174,752.065095 1218.139955,751.041639 1219.363931,750.533810 1220.989819,750.616102 1222.698303,751.040806 1225.131832,752.458800 1229.028282,754.707524 1218.814578,775.491360 1216.811010,774.462803"/>
    <poly id="1074010421" type="landuse.grass" color="194,194,130" fill="1" layer="-3.00" shape="1168.613072,750.247013 1184.554980,736.822283 1185.747206,735.693015 1186.238382,734.547635 1185.699587,733.083114 1184.631753,732.564906 1182.645189,731.558162 1175.791966,728.404329 1164.867829,748.450156 1168.613072,750.247013"/>
    <poly id="1074010422" type="landuse.grass" color="194,194,130" fill="1" layer="-3.00" shape="1192.796516,720.653431 1197.383822,705.385439 1210.511597,712.296247 1209.330316,715.214102 1207.982366,718.058274 1206.428523,720.574175 1204.412871,721.068116 1201.883790,721.130230 1199.353562,721.481258 1196.866321,722.575664 1195.359632,722.312674 1192.796516,720.653431"/>
    <poly id="1074010423" type="landuse.grass" color="194,194,130" fill="1" layer="-3.00" shape="1217.969059,725.957335 1222.670054,717.330911 1236.102645,723.900951 1226.367610,737.662016 1223.389820,736.235164 1222.552885,734.377968 1221.398598,732.017463 1220.036121,729.906511 1218.477350,727.522606 1217.969059,725.957335"/>
    <poly id="1074010424" type="amenity.bicycle_parking" color="237,199,199" fill="1" layer="-1.00" shape="1085.635968,836.984626 1086.166823,834.771610 1093.405416,836.838120 1099.423871,839.567946 1099.869333,840.923646 1099.032904,842.777509 1085.635968,836.984626"/>
    <poly id="1074585733" type="amenity.bicycle_parking" color="237,199,199" fill="1" layer="-1.00" shape="408.837872,267.801433 413.353360,278.078823 418.779434,275.811656 415.789764,269.574360 427.448725,265.664572 425.902291,262.124977 408.837872,267.801433"/>
    <poly id="1074894021" type="natural.tree_row" color="140,196,107" fill="0" layer="-4.00" shape="758.161470,550.077684 664.834667,499.021268"/>
    <poly id="1074894022" type="natural.tree_row" color="140,196,107" fill="0" layer="-4.00" shape="698.080782,527.835311 734.328719,548.009013 757.662268,559.934300 790.402151,576.583586"/>
    <poly id="1074894023" type="amenity.bicycle_parking" color="237,199,199" fill="1" layer="-1.00" shape="475.089090,573.875288 479.808966,571.058912 485.000933,579.697448 480.281062,582.513820 475.089090,573.875288"/>
    <poly id="1074894042" type="landuse.grass" color="194,194,130" fill="1" layer="-3.00" shape="446.510883,596.313280 449.237209,591.546077 456.861626,583.835866 460.209997,582.564401 477.562153,611.313920 469.708189,606.374341 462.559875,602.639576 455.627347,599.632821 449.282149,597.378245 446.510883,596.313280"/>
    <poly id="117701254" type="amenity.parking" color="184,184,179" fill="1" layer="-1.00" shape="628.016554,566.460960 658.198447,548.528629 683.482014,561.638954 669.136069,589.303145 665.655353,595.911041 634.201429,579.941743 636.006814,575.597307 632.735015,573.955721 628.016554,566.460960"/>
    <poly id="117701255" type="amenity.parking" color="184,184,179" fill="1" layer="-1.00" shape="584.085668,699.464390 546.185027,681.121092 518.773950,637.886257 576.489397,600.297133 610.684668,652.575997 584.085668,699.464390"/>
    <poly id="127382413" type="landuse.recreation_ground" color="194,194,130" fill="1" layer="-3.00" shape="2143.355857,-208.430033 2161.391787,-230.458783 2116.277618,-263.989636 2078.806792,-248.185889 2029.450161,-223.191726 1952.158740,-182.525811 1915.102848,-160.909196 1847.554789,-115.280403 1800.709775,-78.001788 1640.180867,48.414381 1600.269189,80.235865 1542.901545,121.296306 1486.645125,153.519067 1420.570355,182.016498 1357.205541,213.092493 1324.612448,236.358488 1293.617424,266.285311 1256.050155,320.962108 1267.698679,330.720433 1310.459220,267.638611 1329.893201,248.650915 1346.464147,261.810746 1402.909637,201.393750 1445.414599,180.251710 1453.810553,190.834528 1467.054706,207.509482 1676.206396,52.465358 1686.102042,45.523184 1679.764537,37.522975 1784.979009,-46.728630 1790.772708,-36.692843 1856.322902,-86.773284 1885.252787,-115.680239 1908.714629,-132.553622 1939.123198,-150.563402 1978.330814,-174.876867 2013.817540,-188.521638 2051.174231,-202.567456 2095.012161,-213.860335 2129.449754,-216.468027 2143.355857,-208.430033"/>
    <poly id="152566866" type="building.dormitory" color="255,230,230" fill="1" layer="-1.00" shape="1030.816629,900.520196 1014.916031,892.466815 1031.005449,860.927211 1040.442399,842.439903 1047.276304,829.049864 1063.410663,837.219798 1048.469176,866.508905 1049.370605,866.964516 1068.426346,876.618175 1076.400444,860.989059 1093.369399,869.582981 1065.185046,924.830507 1048.065716,916.151467 1055.426375,901.726273 1044.291865,896.088966 1035.377544,891.574852 1030.816629,900.520196"/>
    <poly id="173544704" type="amenity.college" color="237,199,199" fill="1" layer="-2.00" shape="770.336261,336.769488 734.350695,353.066416 755.875693,397.646964 790.409882,466.729220 798.169720,482.249113 793.472171,489.997986 759.821385,545.847977 672.396648,495.790574 664.018370,491.985904 630.529607,476.755608 611.301341,476.562754 601.619499,481.412405 597.586366,483.667329 587.234963,489.444603 571.040734,491.277062 571.199152,498.373080 565.368331,501.938987 558.906150,505.976014 531.218336,523.425067 494.212484,546.759508 467.145238,557.271376 458.493641,570.795740 453.318976,561.523468 451.338172,558.083472 430.891359,522.521526 426.474115,515.886116 421.349776,508.657046 378.196641,453.566734 374.889901,445.837293 373.413087,439.773793 376.184244,424.127782 377.975642,412.539245 383.783093,394.662784 386.235009,387.124580 388.286202,380.718476 389.418919,377.179451 392.074932,368.891776 350.235241,348.024414 338.631308,342.466404 288.172510,319.089925 289.892394,313.958623 290.670574,309.750561 290.983713,308.076179 291.127856,302.561560 301.827723,298.875232 399.450693,265.221935 418.633913,257.882095 447.063305,247.403173 462.436917,242.357396 470.264062,239.842171 482.638492,235.859281 485.366651,234.836463 506.652036,226.822821 530.855313,215.448462 556.096056,202.348639 572.448609,193.867912 637.358985,158.379963 647.657302,176.192707 659.306531,198.649907 667.555523,194.180096 748.956850,149.442690 753.438438,146.976828 761.039204,146.978591 767.751332,151.402180 785.147934,177.284705 791.933504,187.373099 812.496029,217.966581 827.429714,242.265390 830.196454,249.508315 829.891351,258.549037 826.432830,265.067398 819.687317,270.000013 784.280074,289.715714 779.570087,294.620486 777.762114,300.876024 779.222041,307.606664 785.024237,318.941463 789.570601,327.818322 770.336261,336.769488"/>
    <poly id="173544916" type="leisure.pitch" color="207,245,201" fill="1" layer="-2.00" shape="672.396648,495.790574 671.100541,492.366987 701.283186,438.635277 717.261469,447.108320 738.204349,435.581613 744.445526,437.627906 754.803250,458.883718 761.212613,472.114633 772.733509,478.342016 793.472171,489.997986 759.821385,545.847977 672.396648,495.790574"/>
    <poly id="173544916#1" type="sport.soccer;baseball" color="79,230,125" fill="1" layer="-2.00" shape="672.396648,495.790574 671.100541,492.366987 701.283186,438.635277 717.261469,447.108320 738.204349,435.581613 744.445526,437.627906 754.803250,458.883718 761.212613,472.114633 772.733509,478.342016 793.472171,489.997986 759.821385,545.847977 672.396648,495.790574"/>
    <poly id="181006717" type="amenity.parking" color="184,184,179" fill="1" layer="-1.00" shape="1223.435864,290.285575 1236.330838,300.779902 1241.470007,293.198294 1271.570826,245.326805 1230.356150,219.939035 1200.813737,268.052547 1223.435864,290.285575"/>
    <poly id="181026317" type="amenity.parking" color="184,184,179" fill="1" layer="-1.00" shape="964.643419,323.344280 963.224168,307.868291 969.951347,302.858491 984.693817,299.629365 985.016881,294.999267 993.563975,291.922493 1000.196017,291.759438 1004.055721,295.853374 1008.579692,300.142089 1014.042790,297.363379 1019.022827,302.096437 1024.959720,309.872599 1026.154830,319.254193 1026.329006,320.638780 1003.194289,323.851922 991.717657,324.789635 990.684134,327.681671 991.215562,331.190776 973.579122,333.391069 972.800991,328.565828 970.769315,327.071364 965.488057,327.856778 964.643419,323.344280"/>
    <poly id="181027878" type="building.university" color="255,230,230" fill="1" layer="-1.00" shape="934.470224,626.571057 931.616681,627.519014 929.823940,626.352017 929.802362,625.474782 924.753302,622.621243 917.266369,619.183244 915.461347,613.161062 918.728590,606.914104 924.917102,604.817453 925.377250,603.417264 930.281699,601.396649 935.175700,603.642903 937.758789,598.401659 947.156814,603.125992 936.637357,624.862218 934.470224,626.571057"/>
    <poly id="181027879" type="building.university" color="255,230,230" fill="1" layer="-1.00" shape="1001.831825,591.981584 1029.613415,607.153885 1049.453909,568.555598 1042.952576,564.971018 1041.734585,569.412006 1019.152404,559.189527 1001.831825,591.981584"/>
    <poly id="181027880" type="building.university" color="255,230,230" fill="1" layer="-1.00" shape="937.061705,628.373955 952.853924,636.685411 965.293817,612.257573 949.287324,604.284686 937.061705,628.373955"/>
    <poly id="181027881" type="building.university" color="255,230,230" fill="1" layer="-1.00" shape="976.946459,578.271477 985.367578,574.108897 1002.722846,565.526715 1004.119369,568.347894 1004.905976,573.184040 1003.503256,579.162890 999.643235,584.102175 995.921095,586.938101 990.469940,588.516563 987.355989,587.926476 983.322867,585.825680 978.889758,582.879180 976.946459,578.271477"/>
    <poly id="181029628" type="building.university" color="255,230,230" fill="1" layer="-1.00" shape="1041.425810,655.773913 1052.170689,634.143426 1048.799446,631.804107 1067.570926,594.987680 1159.329298,640.098965 1143.956322,671.320607 1138.607601,669.685376 1134.638978,675.238355 1067.395362,639.158020 1054.862798,662.510177 1041.425810,655.773913"/>
    <poly id="181029628#1" type="leisure.sports_centre" color="207,245,201" fill="1" layer="-2.00" shape="1041.425810,655.773913 1052.170689,634.143426 1048.799446,631.804107 1067.570926,594.987680 1159.329298,640.098965 1143.956322,671.320607 1138.607601,669.685376 1134.638978,675.238355 1067.395362,639.158020 1054.862798,662.510177 1041.425810,655.773913"/>
    <poly id="181029628#2" type="sport.swimming" color="79,230,125" fill="1" layer="-2.00" shape="1041.425810,655.773913 1052.170689,634.143426 1048.799446,631.804107 1067.570926,594.987680 1159.329298,640.098965 1143.956322,671.320607 1138.607601,669.685376 1134.638978,675.238355 1067.395362,639.158020 1054.862798,662.510177 1041.425810,655.773913"/>
    <poly id="181030432" type="amenity.parking" color="184,184,179" fill="1" layer="-1.00" shape="867.613809,786.847175 924.288253,758.864205 935.082149,782.476145 879.181727,810.084440 867.613809,786.847175"/>
    <poly id="181030433" type="building.dormitory" color="255,230,230" fill="1" layer="-1.00" shape="990.245616,890.806821 1017.847509,949.671734 1006.609381,954.903557 1009.175504,960.373715 1020.380946,955.153812 1025.681471,966.234444 1007.204192,972.388695 980.204965,915.908967 988.248317,912.155652 985.978088,907.322658 977.013688,911.498622 971.420445,899.580787 978.999444,896.049991 981.207870,895.017914 990.245616,890.806821"/>
    <poly id="181031025" type="building.dormitory" color="255,230,230" fill="1" layer="-1.00" shape="1174.860952,909.624480 1184.508944,890.321098 1165.241413,880.761225 1164.833231,881.593462 1161.216224,888.704439 1156.930980,896.798488 1153.400787,903.751784 1153.244653,904.777827 1166.170100,911.182404 1174.860952,909.624480"/>
    <poly id="181031026" type="amenity.parking" color="184,184,179" fill="1" layer="-1.00" shape="874.471939,381.817049 885.492944,401.901175 901.249209,395.324741 954.394760,364.829061 944.105678,343.326854 937.123618,347.020747 935.682834,344.078447 892.655251,367.003216 885.783507,373.838851 877.748999,378.980902 875.854572,380.049721 874.471939,381.817049"/>
    <poly id="181031026#1" type="building.parking" color="255,230,230" fill="1" layer="-1.00" shape="874.471939,381.817049 885.492944,401.901175 901.249209,395.324741 954.394760,364.829061 944.105678,343.326854 937.123618,347.020747 935.682834,344.078447 892.655251,367.003216 885.783507,373.838851 877.748999,378.980902 875.854572,380.049721 874.471939,381.817049"/>
    <poly id="181031027" type="building.dormitory" color="255,230,230" fill="1" layer="-1.00" shape="1139.979732,896.970524 1153.400787,903.751784 1156.930980,896.798488 1154.986191,895.812950 1159.137991,887.655512 1161.216224,888.704439 1164.833231,881.593462 1151.712804,874.971457 1148.174365,881.924957 1150.895374,883.302529 1146.719958,891.504995 1143.565126,889.915866 1139.979732,896.970524"/>
    <poly id="181031028" type="building.dormitory" color="255,230,230" fill="1" layer="-1.00" shape="1094.404580,873.468595 1113.542886,883.131454 1117.836108,874.692741 1115.106851,873.315384 1118.377454,866.868440 1121.206932,868.298890 1124.737115,861.345578 1105.840942,851.810067 1102.333848,858.696156 1104.420609,859.755969 1101.023940,866.439348 1098.603298,865.209967 1094.404580,873.468595"/>
    <poly id="181031029" type="building.dormitory" color="255,230,230" fill="1" layer="-1.00" shape="1115.675312,885.379019 1124.806223,889.987908 1131.796257,876.238570 1135.510674,878.125052 1128.528327,891.851975 1138.034562,896.640545 1145.858268,881.259650 1147.970002,882.329972 1148.174365,881.924957 1151.712804,874.971457 1124.737115,861.345578 1121.206932,868.298890 1123.719276,869.570469 1115.675312,885.379019"/>
    <poly id="181032242" type="building.yes" color="255,230,230" fill="1" layer="-1.00" shape="1255.844216,901.813431 1257.750798,902.922155 1258.111393,904.179949 1260.243998,905.094238 1261.398717,904.788112 1261.792711,905.056212 1267.987616,892.148755 1261.792193,889.256470 1255.844216,901.813431"/>
    <poly id="181032244" type="building.yes" color="255,230,230" fill="1" layer="-1.00" shape="1220.803367,883.996410 1220.839694,885.139945 1221.868926,886.436871 1223.573343,886.361680 1236.723082,892.838654 1237.088317,894.285218 1238.490817,895.006322 1239.435112,895.194241 1240.752134,894.784129 1255.305427,902.026657 1261.792193,889.256470 1263.993826,884.924703 1230.011242,866.903876 1220.803367,883.996410"/>
    <poly id="181032245" type="amenity.university" color="237,199,199" fill="1" layer="-2.00" shape="1267.599852,907.913585 1274.201418,895.118370 1280.421851,899.365585 1273.522259,911.101461 1267.599852,907.913585"/>
    <poly id="181032245#1" type="building.yes" color="255,230,230" fill="1" layer="-1.00" shape="1267.599852,907.913585 1274.201418,895.118370 1280.421851,899.365585 1273.522259,911.101461 1267.599852,907.913585"/>
    <poly id="181032250" type="building.yes" color="255,230,230" fill="1" layer="-1.00" shape="1267.599852,907.913585 1261.792711,905.056212 1267.987616,892.148755 1274.201418,895.118370 1267.599852,907.913585"/>
    <poly id="181032252" type="amenity.parking" color="184,184,179" fill="1" layer="-1.00" shape="1195.156122,870.082093 1204.724965,874.735883 1215.557346,852.636838 1205.988483,847.983033 1195.156122,870.082093"/>
    <poly id="181033006" type="building.yes" color="255,230,230" fill="1" layer="-1.00" shape="1273.351829,841.040076 1260.738736,866.493801 1274.957487,872.866822 1287.916581,849.082382 1281.484259,845.607015 1273.171185,860.877533 1270.147087,859.240694 1278.492019,843.924946 1276.427542,842.764537 1273.351829,841.040076"/>
    <poly id="181033007" type="building.yes" color="255,230,230" fill="1" layer="-1.00" shape="1265.291776,837.071360 1273.351829,841.040076 1260.738736,866.493801 1241.690351,857.128337 1242.389440,855.722303 1245.609376,849.221114 1250.423906,839.514156 1254.468486,831.348306 1261.752340,834.924963 1253.545061,851.481777 1257.249581,853.301900 1265.291776,837.071360"/>
    <poly id="181033636" type="leisure.pitch" color="207,245,201" fill="1" layer="-2.00" shape="1090.410699,789.779063 1098.982171,772.624213 1116.442253,781.406127 1106.761680,798.377102 1090.410699,789.779063"/>
    <poly id="181033636#1" type="sport.multi" color="79,230,125" fill="1" layer="-2.00" shape="1090.410699,789.779063 1098.982171,772.624213 1116.442253,781.406127 1106.761680,798.377102 1090.410699,789.779063"/>
    <poly id="181033637" type="building.dormitory" color="255,230,230" fill="1" layer="-1.00" shape="1061.805187,801.415324 1075.120226,808.232386 1086.890751,814.254111 1115.190117,828.736206 1134.797667,790.732742 1119.186929,782.738662 1109.438227,801.633502 1104.295970,799.004354 1087.800524,790.565425 1088.374879,789.451325 1097.540949,771.670756 1081.404306,763.411908 1061.805187,801.415324"/>
    <poly id="190324997" type="building.yes" color="255,230,230" fill="1" layer="-1.00" shape="531.537105,513.283981 523.580091,497.480328 525.555725,496.364963 514.776309,479.430916 502.856251,456.691737 504.353118,453.543750 509.563690,456.248575 508.703514,457.469772 527.407418,467.486282 539.141595,485.030136 549.237659,478.259095 551.297628,476.886107 552.314425,478.005474 552.049076,478.945338 565.689036,485.520150 568.710213,490.034520 561.731686,494.862040 561.192963,494.075328 531.537105,513.283981"/>
    <poly id="212127240" type="building.yes" color="255,230,230" fill="1" layer="-1.00" shape="938.885127,736.016548 941.671110,741.036841 946.054054,738.595731 943.268347,733.586541 938.885127,736.016548"/>
    <poly id="212127331" type="building.yes" color="255,230,230" fill="1" layer="-1.00" shape="924.474403,900.124448 927.815614,906.942163 931.985858,904.906265 928.644650,898.088549 924.474403,900.124448"/>
    <poly id="212127764" type="building.yes" color="255,230,230" fill="1" layer="-1.00" shape="788.820109,513.323324 794.134097,525.259024 803.054403,521.283933 797.740429,509.348226 788.820109,513.323324"/>
    <poly id="212127775" type="building.yes" color="255,230,230" fill="1" layer="-1.00" shape="785.810247,507.253052 790.641972,509.978516 795.041829,502.192525 790.218339,499.466855 785.810247,507.253052"/>
    <poly id="212127805" type="building.yes" color="255,230,230" fill="1" layer="-1.00" shape="756.774540,465.290657 762.721326,472.121931 766.578885,468.760330 760.632100,461.929053 756.774540,465.290657"/>
    <poly id="212127841" type="building.yes" color="255,230,230" fill="1" layer="-1.00" shape="706.455558,256.698998 709.408562,261.792877 711.838544,260.377496 708.885541,255.283616 706.455558,256.698998"/>
    <poly id="212128011" type="building.yes" color="255,230,230" fill="1" layer="-1.00" shape="555.422666,576.005578 557.557450,579.675136 561.880795,577.157478 559.754251,573.487715 555.422666,576.005578"/>
    <poly id="212128068" type="building.yes" color="255,230,230" fill="1" layer="-1.00" shape="470.104410,355.378230 487.311399,388.920209 501.687486,381.543569 484.688182,347.729773 470.104410,355.378230"/>
    <poly id="220484728" type="landuse.grass" color="194,194,130" fill="1" layer="-3.00" shape="1263.030716,590.530786 1300.989468,609.631995 1285.758212,639.938712 1294.029330,644.102278 1312.564838,608.370124 1311.668180,601.392246 1301.970008,595.174830 1294.230513,587.820478 1281.918217,585.256084 1272.113446,582.085719 1263.030716,590.530786"/>
    <poly id="220529996" type="landuse.grass" color="194,194,130" fill="1" layer="-3.00" shape="1028.474999,438.117639 1031.381656,429.601865 1029.254485,427.909737 1027.890258,425.732194 1025.319183,426.773162 1022.265368,427.626001 1018.139791,428.138528 1014.954533,428.339056 1011.749298,428.062305 1006.687515,427.042322 1005.515607,427.993344 1004.896892,429.986305 1004.965015,431.751271 1005.788710,432.731005 1011.310645,440.061805 1028.474999,438.117639"/>
    <poly id="220530230" type="historic.monument" color="128,255,128" fill="1" layer="-1.00" shape="1114.870472,488.982430 1118.198731,482.189644 1117.143440,476.815654 1113.758985,470.921125 1103.751258,462.856043 1092.082812,457.320636 1085.251943,476.221553 1114.870472,488.982430"/>
    <poly id="240326471" type="building.university" color="255,230,230" fill="1" layer="-1.00" shape="901.249209,395.324741 904.091366,400.276977 908.449041,407.858563 936.984993,403.390036 937.475202,403.211315 937.964865,403.010386 938.438051,402.809861 938.919203,402.598030 939.392116,402.386401 939.864483,402.152564 940.328612,401.918930 940.792467,401.674191 941.256049,401.418349 941.711120,401.151604 942.157953,400.885063 942.604785,400.618521 943.042833,400.329973 943.472643,400.041629 943.910418,399.741977 944.331443,399.431626 944.752195,399.110171 945.164981,398.800023 945.568983,398.467870 945.972985,398.135716 946.360237,397.792863 946.755455,397.438703 947.142434,397.084747 947.520901,396.719888 947.891131,396.355232 948.252848,395.979674 948.606054,395.593215 948.967499,395.206554 949.304229,394.820500 949.640685,394.423342 949.968357,394.004178 950.296301,393.596118 950.615735,393.177157 950.926930,392.758398 951.221375,392.328940 951.523785,391.888176 951.809719,391.447817 952.087687,391.018764 952.348632,390.567908 952.617816,390.116850 952.862284,389.666400 953.122684,389.193336 953.358367,388.720879 953.586086,388.259730 953.813531,387.787476 954.024227,387.304524 954.235195,386.832675 954.429141,386.339024 954.615121,385.856679 954.800828,385.363230 954.961820,384.870388 955.131051,384.377345 955.283258,383.862497 955.436011,383.369859 955.563503,382.855620 955.691268,382.352485 955.818760,381.838245 955.921810,381.335718 956.024587,380.822087 956.110614,380.297756 956.196913,379.784530 956.274975,379.271506 956.336559,378.758888 956.389632,378.235368 956.442705,377.711848 956.479301,377.188733 956.507658,376.665821 956.527778,376.143111 956.531420,375.620807 956.543300,375.098300 956.530466,374.576400 956.517358,374.043397 956.496558,373.532805 956.459008,373.011513 956.412946,372.479320 956.358919,371.958434 956.288415,371.437953 956.226422,370.928374 956.139441,370.408298 956.052460,369.888222 955.949275,369.379656 955.845817,368.859985 955.734667,368.362726 955.606767,367.854767 955.470628,367.347011 955.326251,366.839458 955.058069,365.990510 954.394760,364.829061 941.144925,372.432598 901.249209,395.324741"/>
    <poly id="240326472" type="building.dormitory" color="255,230,230" fill="1" layer="-1.00" shape="937.107809,439.553181 936.123781,430.044182 929.193920,430.159076 920.766265,430.710813 913.845374,431.525492 905.599698,432.772762 897.741459,434.354950 902.095902,443.481035 909.876391,442.089650 915.842983,441.353996 919.895063,446.232031 914.069663,446.675323 906.207112,447.746505 910.490035,457.652120 915.794770,457.154966 915.949441,458.751140 914.976177,459.063966 914.108482,462.663039 923.567999,464.852539 936.042252,468.623432 945.752774,472.640095 954.185794,476.665967 963.694521,482.198707 966.036163,483.896652 967.630510,472.302050 966.311147,471.278955 967.068668,470.238118 964.857008,448.015042 961.504445,446.775284 960.369639,449.569820 952.404221,447.799074 943.829341,446.721095 935.772293,446.252603 928.362482,445.957087 927.166804,439.908803 937.107809,439.553181"/>
    <poly id="240326474" type="building.university" color="255,230,230" fill="1" layer="-1.00" shape="1038.971389,325.205722 965.084436,335.244376 970.508271,375.121543 1002.139542,370.810506 1008.663142,369.927909 1012.491895,369.411565 1037.181077,366.060236 1039.473333,365.748339 1044.386566,365.083135 1043.924349,361.705657 1038.971389,325.205722"/>